[TITLE]
EPANET Example Network 3 
Example showing how the percent of Lake water in a dual-source  
system changes over time. 

[JUNCTIONS]
 10                                  147.0000
 15                                   32.0000
 20                                  129.0000
 35                                   12.5000
 40                                  131.9000
 50                                  116.5000
 60                                    0.0000
 601                                   0.0000
 61                                    0.0000
 101                                  42.0000
 103                                  43.0000
 105                                  28.5000
 107                                  22.0000
 109                                  20.3000
 111                                  10.0000
 113                                   2.0000
 115                                  14.0000
 117                                  13.6000
 119                                   2.0000
 120                                   0.0000
 121                                  -2.0000
 123                                  11.0000
 125                                  11.0000
 127                                  56.0000
 129                                  51.0000
 131                                   6.0000
 139                                  31.0000
 141                                   4.0000
 143                                  -4.5000
 145                                   1.0000
 147                                  18.5000
 149                                  16.0000
 151                                  33.5000
 153                                  66.2000
 157                                  13.1000
 159                                   6.0000
 161                                   4.0000
 163                                   5.0000
 164                                   5.0000
 166                                  -2.0000
 167                                  -5.0000
 169                                  -5.0000
 171                                  -4.0000
 173                                  -4.0000
 177                                   8.0000
 179                                   8.0000
 181                                   8.0000
 183                                  11.0000
 184                                  16.0000
 185                                  16.0000
 187                                  12.5000
 189                                   4.0000
 191                                  25.0000
 193                                  18.0000
 195                                  15.5000
 197                                  23.0000
 199                                  -2.0000
 201                                   0.1000
 203                                   2.0000
 204                                  21.0000
 205                                  21.0000
 206                                   1.0000
 207                                   9.0000
 208                                  16.0000
 209                                  -2.0000
 211                                   7.0000
 213                                   7.0000
 215                                   7.0000
 217                                   6.0000
 219                                   4.0000
 225                                   8.0000
 229                                  10.5000
 231                                   5.0000
 237                                  14.0000
 239                                  13.0000
 241                                  13.0000
 243                                  14.0000
 247                                  18.0000
 249                                  18.0000
 251                                  30.0000
 253                                  36.0000
 255                                  27.0000
 257                                  17.0000
 259                                  25.0000
 261                                   0.0000
 263                                   0.0000
 265                                   0.0000
 267                                  21.0000
 269                                   0.0000
 271                                   6.0000
 273                                   8.0000
 275                                  10.0000

[RESERVOIRS]
 River                               220.0000 
 Lake                                167.0000 

[TANKS]
 1                                   131.9000      13.1000       0.1000      32.1000      85.0000     567.4502 
 2                                   116.5000      23.5000       6.5000      40.3000      50.0000   12762.7202 
 3                                   129.0000      29.0000       4.0000      35.5000     164.0000   84496.2760 

[PIPES]
 20                              3                               20                                   99.0000      99.0000     199.0000       0.0000 
 40                              1                               40                                   99.0000      99.0000     199.0000       0.0000 
 50                              2                               50                                   99.0000      99.0000     199.0000       0.0000 
 60                              River                           60                                 1231.0000      24.0000     140.0000       0.0000 
 101                             10                              101                               14200.0000      18.0000     110.0000       0.0000 
 103                             101                             103                                1350.0000      16.0000     130.0000       0.0000 
 105                             101                             105                                2540.0000      12.0000     130.0000       0.0000 
 107                             105                             107                                1470.0000      12.0000     130.0000       0.0000 
 109                             103                             109                                3940.0000      16.0000     130.0000       0.0000 
 111                             109                             111                                2000.0000      12.0000     130.0000       0.0000 
 112                             115                             111                                1160.0000      12.0000     130.0000       0.0000 
 113                             111                             113                                1680.0000      12.0000     130.0000       0.0000 
 114                             115                             113                                2000.0000       8.0000     130.0000       0.0000 
 115                             107                             115                                1950.0000       8.0000     130.0000       0.0000 
 116                             113                             193                                1660.0000      12.0000     130.0000       0.0000 
 117                             263                             105                                2725.0000      12.0000     130.0000       0.0000 
 119                             115                             117                                2180.0000      12.0000     130.0000       0.0000 
 120                             119                             120                                 730.0000      12.0000     130.0000       0.0000 
 121                             120                             117                                1870.0000      12.0000     130.0000       0.0000 
 122                             121                             120                                2050.0000       8.0000     130.0000       0.0000 
 123                             121                             119                                2000.0000      30.0000     141.0000       0.0000 
 125                             123                             121                                1500.0000      30.0000     141.0000       0.0000 
 129                             121                             125                                 930.0000      24.0000     130.0000       0.0000 
 131                             125                             127                                3240.0000      24.0000     130.0000       0.0000 
 133                             20                              127                                 785.0000      20.0000     130.0000       0.0000 
 135                             127                             129                                 900.0000      24.0000     130.0000       0.0000 
 137                             129                             131                                6480.0000      16.0000     130.0000       0.0000 
 145                             129                             139                                2750.0000       8.0000     130.0000       0.0000 
 147                             139                             141                                2050.0000       8.0000     130.0000       0.0000 
 149                             143                             141                                1400.0000       8.0000     130.0000       0.0000 
 151                             15                              143                                1650.0000       8.0000     130.0000       0.0000 
 153                             145                             141                                3510.0000      12.0000     130.0000       0.0000 
 155                             147                             145                                2200.0000      12.0000     130.0000       0.0000 
 159                             147                             149                                 880.0000      12.0000     130.0000       0.0000 
 161                             149                             151                                1020.0000       8.0000     130.0000       0.0000 
 163                             151                             153                                1170.0000      12.0000     130.0000       0.0000 
 169                             125                             153                                4560.0000       8.0000     130.0000       0.0000 
 171                             119                             151                                3460.0000      12.0000     130.0000       0.0000 
 173                             119                             157                                2080.0000      30.0000     141.0000       0.0000 
 175                             157                             159                                2910.0000      30.0000     141.0000       0.0000 
 177                             159                             161                                2000.0000      30.0000     141.0000       0.0000 
 179                             161                             163                                 430.0000      30.0000     141.0000       0.0000 
 180                             163                             164                                 150.0000      14.0000     130.0000       0.0000 
 181                             164                             166                                 490.0000      14.0000     130.0000       0.0000 
 183                             265                             169                                 590.0000      30.0000     141.0000       0.0000 
 185                             167                             169                                  60.0000       8.0000     130.0000       0.0000 
 186                             187                             204                                  99.9000       8.0000     130.0000       0.0000 
 187                             169                             171                                1270.0000      30.0000     141.0000       0.0000 
 189                             171                             173                                  50.0000      30.0000     141.0000       0.0000 
 191                             271                             171                                 760.0000      24.0000     130.0000       0.0000 
 193                             35                              181                                  30.0000      24.0000     130.0000       0.0000 
 195                             181                             177                                  30.0000      12.0000     130.0000       0.0000 
 197                             177                             179                                  30.0000      12.0000     130.0000       0.0000 
 199                             179                             183                                 210.0000      12.0000     130.0000       0.0000 
 201                             40                              179                                1190.0000      12.0000     130.0000       0.0000 
 202                             185                             184                                  99.9000       8.0000     130.0000       0.0000 
 203                             183                             185                                 510.0000       8.0000     130.0000       0.0000 
 204                             184                             205                                4530.0000      12.0000     130.0000       0.0000 
 205                             204                             185                                1325.0000      12.0000     130.0000       0.0000 
 207                             189                             183                                1350.0000      12.0000     130.0000       0.0000 
 209                             189                             187                                 500.0000       8.0000     130.0000       0.0000 
 211                             169                             269                                 646.0000      12.0000     130.0000       0.0000 
 213                             191                             187                                2560.0000      12.0000     130.0000       0.0000 
 215                             267                             189                                1230.0000      12.0000     130.0000       0.0000 
 217                             191                             193                                 520.0000      12.0000     130.0000       0.0000 
 219                             193                             195                                 360.0000      12.0000     130.0000       0.0000 
 221                             161                             195                                2300.0000       8.0000     130.0000       0.0000 
 223                             197                             191                                1150.0000      12.0000     130.0000       0.0000 
 225                             111                             197                                2790.0000      12.0000     130.0000       0.0000 
 229                             173                             199                                4000.0000      24.0000     141.0000       0.0000 
 231                             199                             201                                 630.0000      24.0000     141.0000       0.0000 
 233                             201                             203                                 120.0000      24.0000     130.0000       0.0000 
 235                             199                             273                                 725.0000      12.0000     130.0000       0.0000 
 237                             205                             207                                1200.0000      12.0000     130.0000       0.0000 
 238                             207                             206                                 450.0000      12.0000     130.0000       0.0000 
 239                             275                             207                                1430.0000      12.0000     130.0000       0.0000 
 240                             206                             208                                 510.0000      12.0000     130.0000       0.0000 
 241                             208                             209                                 885.0000      12.0000     130.0000       0.0000 
 243                             209                             211                                1210.0000      16.0000     130.0000       0.0000 
 245                             211                             213                                 990.0000      16.0000     130.0000       0.0000 
 247                             213                             215                                4285.0000    9999.0000     130.0000       0.0000 
 249                             215                             217                                1660.0000      16.0000     130.0000       0.0000 
 251                             217                             219                                2050.0000      14.0000     130.0000       0.0000 
 257                             217                             225                                1560.0000      12.0000     130.0000       0.0000 
 261                             213                             229                                2200.0000       8.0000     130.0000       0.0000 
 263                             229                             231                                1960.0000      12.0000     130.0000       0.0000 
 269                             211                             237                                2080.0000      12.0000     130.0000       0.0000 
 271                             237                             229                                 790.0000       8.0000     130.0000       0.0000 
 273                             237                             239                                 510.0000      12.0000     130.0000       0.0000 
 275                             239                             241                                  35.0000      12.0000     130.0000       0.0000 
 277                             241                             243                                2200.0000      12.0000     130.0000       0.0000 
 281                             241                             247                                 445.0000      10.0000     130.0000       0.0000 
 283                             239                             249                                 430.0000      12.0000     130.0000       0.0000 
 285                             247                             249                                  10.0000      12.0000     130.0000       0.0000 
 287                             247                             255                                1390.0000      10.0000     130.0000       0.0000 
 289                             50                              255                                 925.0000      10.0000     130.0000       0.0000 
 291                             255                             253                                1100.0000      10.0000     130.0000       0.0000 
 293                             255                             251                                1100.0000       8.0000     130.0000       0.0000 
 295                             249                             251                                1450.0000      12.0000     130.0000       0.0000 
 297                             120                             257                                 645.0000       8.0000     130.0000       0.0000 
 299                             257                             259                                 350.0000       8.0000     130.0000       0.0000 
 301                             259                             263                                1400.0000       8.0000     130.0000       0.0000 
 303                             257                             261                                1400.0000       8.0000     130.0000       0.0000 
 305                             117                             261                                 645.0000      12.0000     130.0000       0.0000 
 307                             261                             263                                 350.0000      12.0000     130.0000       0.0000 
 309                             265                             267                                1580.0000       8.0000     130.0000       0.0000 
 311                             193                             267                                1170.0000      12.0000     130.0000       0.0000 
 313                             269                             189                                 646.0000      12.0000     130.0000       0.0000 
 315                             181                             271                                 260.0000      24.0000     130.0000       0.0000 
 317                             273                             275                                2230.0000       8.0000     130.0000       0.0000 
 319                             273                             205                                 645.0000      12.0000     130.0000       0.0000 
 321                             163                             265                                1200.0000      30.0000     141.0000       0.0000 
 323                             201                             275                                 300.0000      12.0000     130.0000       0.0000 
 325                             269                             271                                1290.0000       8.0000     130.0000       0.0000 
 329                             61                              123                               45500.0000      30.0000     140.0000       0.0000 
 330                             60                              601                                   1.0000      30.0000     140.0000       0.0000 CLOSED
 333                             601                             61                                    1.0000      30.0000     140.0000       0.0000 

[PUMPS]
 10                              Lake                            10                               HEAD 1
 335                             60                              61                               HEAD 2

[VALVES]

[DEMANDS]
 10                                    0.000000    1
 15                                    1.000000    3
 20                                    0.000000    1
 35                                    1.000000    4
 40                                    0.000000    1
 50                                    0.000000    1
 60                                    0.000000    1
 601                                   0.000000    1
 61                                    0.000000    1
 101                                 189.950000    1
 103                                 133.200000    1
 105                                 135.370000    1
 107                                  54.640000    1
 109                                 231.400000    1
 111                                 141.940000    1
 113                                  20.010000    1
 115                                  52.100000    1
 117                                 117.710000    1
 119                                 176.130000    1
 120                                   0.000000    1
 121                                  41.630000    1
 123                                   1.000000    2
 125                                  45.600000    1
 127                                  17.660000    1
 129                                   0.000000    1
 131                                  42.750000    1
 139                                   5.890000    1
 141                                   9.850000    1
 143                                   6.200000    1
 145                                  27.630000    1
 147                                   8.550000    1
 149                                  27.070000    1
 151                                 144.480000    1
 153                                  44.170000    1
 157                                  51.790000    1
 159                                  41.320000    1
 161                                  15.800000    1
 163                                   9.420000    1
 164                                   0.000000    1
 166                                   2.600000    1
 167                                  14.560000    1
 169                                   0.000000    1
 171                                  39.340000    1
 173                                   0.000000    1
 177                                  58.170000    1
 179                                   0.000000    1
 181                                   0.000000    1
 183                                   0.000000    1
 184                                   0.000000    1
 185                                  25.650000    1
 187                                   0.000000    1
 189                                 107.920000    1
 191                                  81.900000    1
 193                                  71.310000    1
 195                                   0.000000    1
 197                                  17.040000    1
 199                                 119.320000    1
 201                                  44.610000    1
 203                                   1.000000    5
 204                                   0.000000    1
 205                                  65.360000    1
 206                                   0.000000    1
 207                                  69.390000    1
 208                                   0.000000    1
 209                                   0.870000    1
 211                                   8.670000    1
 213                                  13.940000    1
 215                                  92.190000    1
 217                                  24.220000    1
 219                                  41.320000    1
 225                                  22.800000    1
 229                                  64.180000    1
 231                                  16.480000    1
 237                                  15.610000    1
 239                                  44.610000    1
 241                                   0.000000    1
 243                                   4.340000    1
 247                                  70.380000    1
 249                                   0.000000    1
 251                                  24.160000    1
 253                                  54.520000    1
 255                                  40.390000    1
 257                                   0.000000    1
 259                                   0.000000    1
 261                                   0.000000    1
 263                                   0.000000    1
 265                                   0.000000    1
 267                                   0.000000    1
 269                                   0.000000    1
 271                                   0.000000    1
 273                                   0.000000    1
 275                                   0.000000    1

[EMITTERS]

[STATUS]
 330                             closed
 10                              closed

[PATTERNS]
 1                                     1.3400       1.9400       1.4600       1.4400       0.7600       0.9200
 1                                     0.8500       1.0700       0.9600       1.1000       1.0800       1.1900
 1                                     1.1600       1.0800       0.9600       0.8300       0.7900       0.7400
 1                                     0.6400       0.6400       0.8500       0.9600       1.2400       1.6700
 2                                     0.0000       0.0000       0.0000       0.0000       0.0000    1219.0000
 2                                     0.0000       0.0000       0.0000    1866.0000    1836.0000    1818.0000
 2                                  1818.0000    1822.0000    1822.0000    1817.0000    1824.0000    1816.0000
 2                                  1833.0000    1817.0000    1830.0000    1814.0000    1840.0000    1859.0000
 3                                   620.0000     620.0000     620.0000     620.0000     620.0000     360.0000
 3                                   360.0000       0.0000       0.0000       0.0000       0.0000     360.0000
 3                                   360.0000     360.0000     360.0000     360.0000       0.0000       0.0000
 3                                     0.0000       0.0000       0.0000       0.0000     360.0000     360.0000
 4                                  1637.0000    1706.0000    1719.0000    1719.0000    1791.0000    1819.0000
 4                                  1777.0000    1842.0000    1815.0000    1825.0000    1856.0000    1801.0000
 4                                  1819.0000    1733.0000    1664.0000    1620.0000    1613.0000    1620.0000
 4                                  1616.0000    1647.0000    1627.0000    1627.0000    1671.0000    1668.0000
 5                                  4439.0000    4531.0000    4511.0000    4582.0000    4531.0000    4582.0000
 5                                  4572.0000    4613.0000    4643.0000    4643.0000    4592.0000    4613.0000